
#======================================================================
# CRYSTAL DATA
#----------------------------------------------------------------------
data_VESTA_phase_1

_chemical_name_common                  'Ni  O                                 '
_cell_length_a                         8.258574
_cell_length_b                         8.258574
_cell_length_c                         23.258575
_cell_angle_alpha                      90.000000
_cell_angle_beta                       90.000000
_cell_angle_gamma                      90.000000
_cell_volume                           1586.329101
_space_group_name_H-M_alt              'P 1'
_space_group_IT_number                 1

loop_
_space_group_symop_operation_xyz
   'x, y, z'

loop_
   _atom_site_label
   _atom_site_occupancy
   _atom_site_fract_x
   _atom_site_fract_y
   _atom_site_fract_z
   _atom_site_adp_type
   _atom_site_U_iso_or_equiv
   _atom_site_type_symbol
   Ni1        1.0     0.001504     0.999636     0.321744    Uiso  ? Ni
   Ni2        1.0     0.248214     0.750080     0.322521    Uiso  ? Ni
   Ni3        1.0     0.750285     0.249674     0.323021    Uiso  ? Ni
   Ni4        1.0    -0.001029     0.752029     0.050998    Uiso  ? Ni
   Ni5        1.0     0.502717     0.249408     0.049890    Uiso  ? Ni
   Ni6        1.0     0.752702     0.000979     0.050225    Uiso  ? Ni
   Ni7        1.0     0.250413     0.250493     0.139548    Uiso  ? Ni
   Ni8        1.0     0.001490     0.500814     0.139459    Uiso  ? Ni
   Ni9        1.0     0.750043     0.749731     0.140228    Uiso  ? Ni
   Ni10       1.0     0.250007    -0.000481     0.232586    Uiso  ? Ni
   Ni11       1.0     0.500613     0.749727     0.232609    Uiso  ? Ni
   Ni12       1.0     0.750028     0.501651     0.233535    Uiso  ? Ni
   Ni13       1.0     0.247772     0.248834     0.322826    Uiso  ? Ni
   Ni14       1.0     0.000355     0.499755     0.323096    Uiso  ? Ni
   Ni15       1.0     0.497083     0.000187     0.322161    Uiso  ? Ni
   Ni16       1.0    -0.000894     0.249610     0.050329    Uiso  ? Ni
   Ni17       1.0     0.248275     0.000483     0.050581    Uiso  ? Ni
   Ni18       1.0     0.751566     0.499962     0.049641    Uiso  ? Ni
   Ni19       1.0     0.001178     0.999163     0.140224    Uiso  ? Ni
   Ni20       1.0     0.249673     0.749320     0.139721    Uiso  ? Ni
   Ni21       1.0     0.499134     0.501070     0.139223    Uiso  ? Ni
   Ni22       1.0     0.000130     0.750753     0.232599    Uiso  ? Ni
   Ni23       1.0     0.499955     0.250250     0.232937    Uiso  ? Ni
   Ni24       1.0     0.749642    -0.001583     0.233281    Uiso  ? Ni
   O1         1.0    -0.000550     0.002720     0.049510    Uiso  ? O
   O2         1.0     0.249707     0.001439     0.323647    Uiso  ? O
   O3         1.0    -0.001067     0.247044     0.323234    Uiso  ? O
   O4         1.0     0.251983     0.246254     0.047178    Uiso  ? O
   O5         1.0    -0.002169    -0.003587     0.232021    Uiso  ? O
   O6         1.0     0.246152     0.999019     0.140180    Uiso  ? O
   O7         1.0     0.007359     0.251269     0.140286    Uiso  ? O
   O8         1.0     0.255178     0.244009     0.233007    Uiso  ? O
   O9         1.0    -0.006415     0.498867     0.048249    Uiso  ? O
   O10        1.0     0.240401     0.497047     0.329622    Uiso  ? O
   O11        1.0     0.006856     0.752185     0.323640    Uiso  ? O
   O12        1.0     0.242994     0.753094     0.047873    Uiso  ? O
   O13        1.0    -0.000727     0.503821     0.232369    Uiso  ? O
   O14        1.0     0.249641     0.501088     0.139344    Uiso  ? O
   O15        1.0     0.000267     0.748987     0.140715    Uiso  ? O
   O16        1.0     0.251171     0.756293     0.231984    Uiso  ? O
   O17        1.0     0.501580    -0.000083     0.048733    Uiso  ? O
   O18        1.0     0.748959     0.000073     0.324769    Uiso  ? O
   O19        1.0     0.499487     0.248841     0.325775    Uiso  ? O
   O20        1.0     0.750300     0.248156     0.045140    Uiso  ? O
   O21        1.0     0.501790    -0.000474     0.232433    Uiso  ? O
   O22        1.0     0.754175     0.000773     0.140788    Uiso  ? O
   O23        1.0     0.494323     0.254338     0.139910    Uiso  ? O
   O24        1.0     0.744623     0.249957     0.234879    Uiso  ? O
   O25        1.0     0.506154     0.499960     0.046771    Uiso  ? O
   O26        1.0     0.756452     0.501064     0.325213    Uiso  ? O
   O27        1.0     0.493085     0.749882     0.324822    Uiso  ? O
   O28        1.0     0.757107     0.752162     0.049318    Uiso  ? O
   O29        1.0     0.502912     0.499815     0.230919    Uiso  ? O
   O30        1.0     0.751267     0.500044     0.140563    Uiso  ? O
   O31        1.0     0.499207     0.745789     0.142017    Uiso  ? O
   O32        1.0     0.749534     0.750206     0.230507    Uiso  ? O
   Fe1        1.0     0.494811     0.498606     0.327559    Uiso  ? Fe
   Fe2        1.0     0.246342     0.497733     0.045367    Uiso  ? Fe
   Fe3        1.0     0.499387    -0.000717     0.140220    Uiso  ? Fe
   Fe4        1.0    -0.000503     0.249371     0.232548    Uiso  ? Fe
   Fe5        1.0     0.752436     0.751234     0.326390    Uiso  ? Fe
   Fe6        1.0     0.501886     0.750983     0.046432    Uiso  ? Fe
   Fe7        1.0     0.750596     0.250782     0.140119    Uiso  ? Fe
   Fe8        1.0     0.252450     0.500409     0.233535    Uiso  ? Fe
