
#======================================================================
# CRYSTAL DATA
#----------------------------------------------------------------------
data_VESTA_phase_1

_chemical_name_common                  'Ni  O                                 '
_cell_length_a                         8.258574
_cell_length_b                         8.258574
_cell_length_c                         23.258575
_cell_angle_alpha                      90.000000
_cell_angle_beta                       90.000000
_cell_angle_gamma                      90.000000
_cell_volume                           1586.329101
_space_group_name_H-M_alt              'P 1'
_space_group_IT_number                 1

loop_
_space_group_symop_operation_xyz
   'x, y, z'

loop_
   _atom_site_label
   _atom_site_occupancy
   _atom_site_fract_x
   _atom_site_fract_y
   _atom_site_fract_z
   _atom_site_adp_type
   _atom_site_U_iso_or_equiv
   _atom_site_type_symbol
   Ni1        1.0     0.001258     0.000731     0.322456    Uiso  ? Ni
   Ni2        1.0     0.247805     0.751433     0.325664    Uiso  ? Ni
   Ni3        1.0     0.751226     0.249490     0.324261    Uiso  ? Ni
   Ni4        1.0    -0.000242     0.752565     0.050512    Uiso  ? Ni
   Ni5        1.0     0.501878     0.249079     0.048907    Uiso  ? Ni
   Ni6        1.0     0.751140     0.002947     0.049350    Uiso  ? Ni
   Ni7        1.0     0.250060     0.249480     0.138915    Uiso  ? Ni
   Ni8        1.0     0.001041     0.500869     0.139592    Uiso  ? Ni
   Ni9        1.0     0.750460     0.749784     0.140438    Uiso  ? Ni
   Ni10       1.0     0.250791    -0.002675     0.232984    Uiso  ? Ni
   Ni11       1.0     0.499344     0.749058     0.233514    Uiso  ? Ni
   Ni12       1.0     0.748833     0.502658     0.233625    Uiso  ? Ni
   Ni13       1.0     0.246996     0.247315     0.323500    Uiso  ? Ni
   Ni14       1.0    -0.000845     0.499755     0.323093    Uiso  ? Ni
   Ni15       1.0     0.497765    -0.000604     0.323231    Uiso  ? Ni
   Ni16       1.0    -0.000434     0.248202     0.048993    Uiso  ? Ni
   Ni17       1.0     0.249467     0.001632     0.049544    Uiso  ? Ni
   Ni18       1.0     0.750865     0.499305     0.049353    Uiso  ? Ni
   Ni19       1.0     0.000726     0.999328     0.139442    Uiso  ? Ni
   Ni20       1.0     0.249728     0.750009     0.139669    Uiso  ? Ni
   Ni21       1.0     0.499537     0.499902     0.139594    Uiso  ? Ni
   Ni22       1.0     0.000986     0.750951     0.232732    Uiso  ? Ni
   Ni23       1.0     0.500357     0.249033     0.233306    Uiso  ? Ni
   Ni24       1.0     0.750049    -0.001405     0.233532    Uiso  ? Ni
   O1         1.0    -0.002329    -0.000841     0.048403    Uiso  ? O
   O2         1.0     0.249896    -0.001178     0.324761    Uiso  ? O
   O3         1.0    -0.000572     0.247535     0.328451    Uiso  ? O
   O4         1.0     0.248975     0.242644     0.047430    Uiso  ? O
   O5         1.0    -0.001077    -0.005018     0.232460    Uiso  ? O
   O6         1.0     0.243181     0.999576     0.139758    Uiso  ? O
   O7         1.0     0.007361     0.252194     0.137630    Uiso  ? O
   O8         1.0     0.252507     0.242287     0.233423    Uiso  ? O
   O9         1.0    -0.001276     0.502443     0.047475    Uiso  ? O
   O10        1.0     0.240036     0.499565     0.325275    Uiso  ? O
   O11        1.0     0.009908     0.752461     0.324135    Uiso  ? O
   O12        1.0     0.251039     0.756850     0.047950    Uiso  ? O
   O13        1.0    -0.007991     0.506549     0.232270    Uiso  ? O
   O14        1.0     0.249920     0.500106     0.141653    Uiso  ? O
   O15        1.0    -0.000463     0.748250     0.139627    Uiso  ? O
   O16        1.0     0.251208     0.755825     0.229514    Uiso  ? O
   O17        1.0     0.503709     0.008569     0.043553    Uiso  ? O
   O18        1.0     0.749816    -0.000682     0.325734    Uiso  ? O
   O19        1.0     0.498798     0.249126     0.326197    Uiso  ? O
   O20        1.0     0.753396     0.251197     0.044834    Uiso  ? O
   O21        1.0     0.502416    -0.000150     0.235540    Uiso  ? O
   O22        1.0     0.756294     0.000772     0.140628    Uiso  ? O
   O23        1.0     0.495128     0.249561     0.140445    Uiso  ? O
   O24        1.0     0.748036     0.249872     0.235733    Uiso  ? O
   O25        1.0     0.501050     0.493839     0.048084    Uiso  ? O
   O26        1.0     0.756047     0.502455     0.326325    Uiso  ? O
   O27        1.0     0.489387     0.748507     0.325714    Uiso  ? O
   O28        1.0     0.749716     0.750735     0.048501    Uiso  ? O
   O29        1.0     0.506685     0.498410     0.230630    Uiso  ? O
   O30        1.0     0.750864     0.500306     0.139483    Uiso  ? O
   O31        1.0     0.500701     0.747541     0.142201    Uiso  ? O
   O32        1.0     0.748611     0.751488     0.231006    Uiso  ? O
   Fe1        1.0     0.496354     0.498286     0.326718    Uiso  ? Fe
   Fe2        1.0     0.247764     0.496107     0.045723    Uiso  ? Fe
   Fe3        1.0     0.498141     0.996385     0.138917    Uiso  ? Fe
   Fe4        1.0     0.000555     0.251037     0.232578    Uiso  ? Fe
   Fe5        1.0     0.753035     0.751620     0.326667    Uiso  ? Fe
   Fe6        1.0     0.501293     0.754201     0.045733    Uiso  ? Fe
   Fe7        1.0     0.752648     0.251072     0.139681    Uiso  ? Fe
   Fe8        1.0     0.250441     0.501658     0.233523    Uiso  ? Fe
