
#======================================================================
# CRYSTAL DATA
#----------------------------------------------------------------------
data_VESTA_phase_1

_chemical_name_common                  'Ni  O                                 '
_cell_length_a                         8.258574
_cell_length_b                         8.258574
_cell_length_c                         23.258575
_cell_angle_alpha                      90.000000
_cell_angle_beta                       90.000000
_cell_angle_gamma                      90.000000
_cell_volume                           1586.329101
_space_group_name_H-M_alt              'P 1'
_space_group_IT_number                 1

loop_
_space_group_symop_operation_xyz
   'x, y, z'

loop_
   _atom_site_label
   _atom_site_occupancy
   _atom_site_fract_x
   _atom_site_fract_y
   _atom_site_fract_z
   _atom_site_adp_type
   _atom_site_U_iso_or_equiv
   _atom_site_type_symbol
   Ni1        1.0     0.000880     0.001875     0.322978    Uiso  ? Ni
   Ni2        1.0     0.248104     0.750664     0.323678    Uiso  ? Ni
   Ni3        1.0     0.751537     0.249330     0.323266    Uiso  ? Ni
   Ni4        1.0    -0.000293     0.751501     0.050269    Uiso  ? Ni
   Ni5        1.0     0.500507     0.249664     0.048617    Uiso  ? Ni
   Ni6        1.0     0.751443     0.000835     0.049187    Uiso  ? Ni
   Ni7        1.0     0.250238     0.250966     0.138778    Uiso  ? Ni
   Ni8        1.0     0.000561     0.500443     0.139123    Uiso  ? Ni
   Ni9        1.0     0.750247     0.749013     0.139751    Uiso  ? Ni
   Ni10       1.0     0.250629    -0.000419     0.233907    Uiso  ? Ni
   Ni11       1.0     0.500424     0.748848     0.232943    Uiso  ? Ni
   Ni12       1.0     0.749709     0.500742     0.233863    Uiso  ? Ni
   Ni13       1.0     0.248367     0.249498     0.323906    Uiso  ? Ni
   Ni14       1.0    -0.000211     0.498399     0.324282    Uiso  ? Ni
   Ni15       1.0     0.499393     0.000375     0.323723    Uiso  ? Ni
   Ni16       1.0    -0.000554     0.248783     0.049642    Uiso  ? Ni
   Ni17       1.0     0.248699     0.000474     0.048770    Uiso  ? Ni
   Ni18       1.0     0.751040     0.499780     0.049434    Uiso  ? Ni
   Ni19       1.0     0.000255     0.000007     0.139699    Uiso  ? Ni
   Ni20       1.0     0.249961     0.749171     0.138964    Uiso  ? Ni
   Ni21       1.0     0.499711     0.500405     0.139337    Uiso  ? Ni
   Ni22       1.0    -0.001382     0.751251     0.232837    Uiso  ? Ni
   Ni23       1.0     0.501026     0.248988     0.233387    Uiso  ? Ni
   Ni24       1.0     0.749779    -0.001013     0.234043    Uiso  ? Ni
   O1         1.0    -0.001852     0.001571     0.048821    Uiso  ? O
   O2         1.0     0.249830    -0.000273     0.325320    Uiso  ? O
   O3         1.0     0.001918     0.248503     0.327112    Uiso  ? O
   O4         1.0     0.250600     0.242075     0.047715    Uiso  ? O
   O5         1.0    -0.000237     0.000315     0.232746    Uiso  ? O
   O6         1.0     0.249310     0.000572     0.140284    Uiso  ? O
   O7         1.0     0.002355     0.249967     0.138056    Uiso  ? O
   O8         1.0     0.254716     0.244747     0.233496    Uiso  ? O
   O9         1.0    -0.001379     0.498702     0.046435    Uiso  ? O
   O10        1.0     0.241840     0.501055     0.331530    Uiso  ? O
   O11        1.0    -0.000184     0.751976     0.324826    Uiso  ? O
   O12        1.0     0.243294     0.757699     0.048492    Uiso  ? O
   O13        1.0    -0.002449     0.500937     0.232805    Uiso  ? O
   O14        1.0     0.248593     0.499760     0.138990    Uiso  ? O
   O15        1.0     0.000990     0.749916     0.140904    Uiso  ? O
   O16        1.0     0.248946     0.755464     0.234082    Uiso  ? O
   O17        1.0     0.502460     0.001976     0.041794    Uiso  ? O
   O18        1.0     0.750515     0.007048     0.324861    Uiso  ? O
   O19        1.0     0.498498     0.247966     0.326171    Uiso  ? O
   O20        1.0     0.749559     0.250232     0.047422    Uiso  ? O
   O21        1.0     0.501403    -0.000938     0.235729    Uiso  ? O
   O22        1.0     0.750587     0.999031     0.140091    Uiso  ? O
   O23        1.0     0.498913     0.256333     0.138936    Uiso  ? O
   O24        1.0     0.747497     0.249212     0.232603    Uiso  ? O
   O25        1.0     0.500714     0.500757     0.044902    Uiso  ? O
   O26        1.0     0.754768     0.492542     0.324178    Uiso  ? O
   O27        1.0     0.499115     0.749281     0.326496    Uiso  ? O
   O28        1.0     0.757679     0.750441     0.048547    Uiso  ? O
   O29        1.0     0.503639     0.498431     0.230739    Uiso  ? O
   O30        1.0     0.752300     0.500903     0.138571    Uiso  ? O
   O31        1.0     0.499018     0.743721     0.142519    Uiso  ? O
   O32        1.0     0.750107     0.750131     0.230500    Uiso  ? O
   Fe1        1.0     0.495206     0.495956     0.328556    Uiso  ? Fe
   Fe2        1.0     0.247890     0.499094     0.044582    Uiso  ? Fe
   Fe3        1.0     0.499663     0.998714     0.139137    Uiso  ? Fe
   Fe4        1.0    -0.000423     0.250320     0.232942    Uiso  ? Fe
   Fe5        1.0     0.751076     0.750400     0.327062    Uiso  ? Fe
   Fe6        1.0     0.501835     0.753931     0.045084    Uiso  ? Fe
   Fe7        1.0     0.749939     0.251374     0.139672    Uiso  ? Fe
   Fe8        1.0     0.251681     0.500577     0.233478    Uiso  ? Fe
