
#======================================================================
# CRYSTAL DATA
#----------------------------------------------------------------------
data_VESTA_phase_1

_chemical_name_common                  'Ni  O                                 '
_cell_length_a                         8.258574
_cell_length_b                         8.258574
_cell_length_c                         23.258575
_cell_angle_alpha                      90.000000
_cell_angle_beta                       90.000000
_cell_angle_gamma                      90.000000
_cell_volume                           1586.329101
_space_group_name_H-M_alt              'P 1'
_space_group_IT_number                 1

loop_
_space_group_symop_operation_xyz
   'x, y, z'

loop_
   _atom_site_label
   _atom_site_occupancy
   _atom_site_fract_x
   _atom_site_fract_y
   _atom_site_fract_z
   _atom_site_adp_type
   _atom_site_U_iso_or_equiv
   _atom_site_type_symbol
   Ni1        1.0     0.000265     0.000040     0.322790    Uiso  ? Ni
   Ni2        1.0     0.248590     0.751301     0.322616    Uiso  ? Ni
   Ni3        1.0     0.750215     0.247427     0.324067    Uiso  ? Ni
   Ni4        1.0     0.000081     0.751330     0.050475    Uiso  ? Ni
   Ni5        1.0     0.501330     0.249723     0.048601    Uiso  ? Ni
   Ni6        1.0     0.751158     0.002287     0.049203    Uiso  ? Ni
   Ni7        1.0     0.249435     0.250389     0.138880    Uiso  ? Ni
   Ni8        1.0     0.001184     0.500727     0.139144    Uiso  ? Ni
   Ni9        1.0     0.750147     0.749482     0.139957    Uiso  ? Ni
   Ni10       1.0     0.250267    -0.000862     0.232999    Uiso  ? Ni
   Ni11       1.0     0.500966     0.751077     0.233468    Uiso  ? Ni
   Ni12       1.0     0.748864     0.502194     0.233431    Uiso  ? Ni
   Ni13       1.0     0.248572     0.247617     0.323879    Uiso  ? Ni
   Ni14       1.0     0.000166     0.499247     0.324003    Uiso  ? Ni
   Ni15       1.0     0.498850    -0.000259     0.323069    Uiso  ? Ni
   Ni16       1.0     0.000381     0.249812     0.049181    Uiso  ? Ni
   Ni17       1.0     0.249880     0.002673     0.049842    Uiso  ? Ni
   Ni18       1.0     0.751249     0.498476     0.049785    Uiso  ? Ni
   Ni19       1.0     0.000641     0.999318     0.139636    Uiso  ? Ni
   Ni20       1.0     0.249701     0.749879     0.139670    Uiso  ? Ni
   Ni21       1.0     0.498884     0.499851     0.139481    Uiso  ? Ni
   Ni22       1.0    -0.000705     0.751097     0.232860    Uiso  ? Ni
   Ni23       1.0     0.499893     0.249240     0.234101    Uiso  ? Ni
   Ni24       1.0     0.749811    -0.001254     0.233762    Uiso  ? Ni
   O1         1.0    -0.000246    -0.000738     0.048474    Uiso  ? O
   O2         1.0     0.247199    -0.000516     0.324156    Uiso  ? O
   O3         1.0     0.999790     0.250656     0.328412    Uiso  ? O
   O4         1.0     0.249023     0.249143     0.047289    Uiso  ? O
   O5         1.0    -0.001516    -0.005362     0.232534    Uiso  ? O
   O6         1.0     0.243665     0.998870     0.139934    Uiso  ? O
   O7         1.0     0.006103     0.251553     0.137976    Uiso  ? O
   O8         1.0     0.250680     0.244422     0.233381    Uiso  ? O
   O9         1.0    -0.001761     0.501915     0.048438    Uiso  ? O
   O10        1.0     0.249666     0.499880     0.329186    Uiso  ? O
   O11        1.0    -0.000104     0.749210     0.324536    Uiso  ? O
   O12        1.0     0.250456     0.752088     0.047665    Uiso  ? O
   O13        1.0    -0.001107     0.506010     0.232874    Uiso  ? O
   O14        1.0     0.249596     0.501037     0.139075    Uiso  ? O
   O15        1.0     0.000418     0.748580     0.140054    Uiso  ? O
   O16        1.0     0.250764     0.756045     0.232485    Uiso  ? O
   O17        1.0     0.500675     0.007040     0.043723    Uiso  ? O
   O18        1.0     0.752141    -0.000058     0.324489    Uiso  ? O
   O19        1.0     0.499339     0.243213     0.325046    Uiso  ? O
   O20        1.0     0.752232     0.249969     0.044926    Uiso  ? O
   O21        1.0     0.501672     0.000802     0.234298    Uiso  ? O
   O22        1.0     0.755530    -0.000292     0.139952    Uiso  ? O
   O23        1.0     0.493771     0.249477     0.140777    Uiso  ? O
   O24        1.0     0.748902     0.251027     0.235213    Uiso  ? O
   O25        1.0     0.502831     0.493200     0.048338    Uiso  ? O
   O26        1.0     0.749595     0.499572     0.325272    Uiso  ? O
   O27        1.0     0.499009     0.755872     0.324235    Uiso  ? O
   O28        1.0     0.749956     0.750326     0.048436    Uiso  ? O
   O29        1.0     0.501418     0.499692     0.230972    Uiso  ? O
   O30        1.0     0.750569     0.499893     0.140588    Uiso  ? O
   O31        1.0     0.499167     0.748331     0.141974    Uiso  ? O
   O32        1.0     0.749560     0.750386     0.230039    Uiso  ? O
   Fe1        1.0     0.498438     0.498980     0.328334    Uiso  ? Fe
   Fe2        1.0     0.250529     0.498873     0.047018    Uiso  ? Fe
   Fe3        1.0     0.498711     0.997693     0.139329    Uiso  ? Fe
   Fe4        1.0     0.000204     0.249338     0.233096    Uiso  ? Fe
   Fe5        1.0     0.749932     0.750794     0.325477    Uiso  ? Fe
   Fe6        1.0     0.500831     0.751387     0.044899    Uiso  ? Fe
   Fe7        1.0     0.750846     0.249676     0.139653    Uiso  ? Fe
   Fe8        1.0     0.251691     0.501198     0.233118    Uiso  ? Fe
